8
Coordinates from ORCA-job job E -79.174339553991
  C          -0.07696488620844      0.00264225043565      0.01503449747601
  C           1.42297403167085      0.00026730705255      0.00170779972564
  H          -0.52956432516482      0.16759451146808      0.99517342002418
  H          -0.47206799721260      0.78060586812661     -0.64348212080303
  H          -0.47202276565405     -0.94827280862626     -0.35199393102178
  H           1.83370076026311      0.95190889480824      0.34680814012902
  H           1.83362978930886     -0.78232192510389      0.64382744884855
  H           1.80356539299709     -0.17242409816099     -1.00707525437860
