!b3lyp
!epr-ii
!autoaux

%output
    jsonpropfile true
    jsongbwfile true
end

*xyz 0 2
C   3.20276693914010      2.91777006829308     -1.46614904250634
H   4.21682401439677      3.22254500904168     -1.25560882817865
H   2.69109288861722      3.31313693290047     -2.33037576806431
H   2.69057615784592      2.24676798976475     -0.79431636125068
*

%eprnmr
        gtensor   true
        nuclei    = all h {aiso, adip, aorb}
end
