!dsd-pbep86
!def2-svp
!def2-svp/c
!def2/j
!chelpg
!hirshfeld
!mulliken
!loewdin
!mayer
!reducedpop
!cpcm(water)

%output
    jsonpropfile true
    jsongbwfile true
end

%elprop
    dipole     true
    quadrupole true
    polar      1
end

*xyz 0 1
O    -3.34982    3.01485    4.09684
H    -4.06011    2.41333    4.36534
H    -3.27881    3.68055    4.79723
*

