!rohf
!def2-svp
!def2-svp/c
!def2/j

%rocis
    nroots 6
    maxdim 5
    maxiter 35
    etol 1e-06
    rtol 1e-06
    nguessmat 512
    docd true
end

%output
    jsonpropfile true
    jsongbwfile true
end

* xyz -1 2
O            -3.3498199999999998             3.0148500000000000             4.0968400000000003
H            -4.0601099999999999             2.4133300000000002             4.3653399999999998
H            -3.2788100000000000             3.6805500000000002             4.7972299999999999
*
