!hf
!def2-svp
!d3
!sp

%method
    d3s6 0.64
    d3a1 0.3065
    d3s8 0.9147
    d3a2 5.0570
end

%output
    jsonpropfile true
    jsongbwfile true
end

*xyz 0 1
O         -3.56626        1.77639        0.00000
H         -2.59626        1.77639        0.00000
H         -3.88959        1.36040       -0.81444
*
